matpower-plain/case22.m
function mpc = case22
%CASE22  Power flow data for 22 bus distribution system from Raju, et al
%   Please see CASEFORMAT for details on the case file format.
%
%   Data from ...
%       M. Ramalinga Raju, K.V.S. Ramachandra Murthy, K. Ravindra,
%       Direct search algorithm for capacitive compensation in radial
%       distribution systems, International Journal of Electrical Power &
%       Energy Systems, Volume 42, Issue 1, November 2012, Pages 24-30
%       https://doi.org/10.1016/j.ijepes.2012.03.006
%
%   Represents "a small portion of agricultural distribution of Eastern
%   Power Distribution system in India."
%
%   Modifications:
%     v2 - 2020-09-30 (RDZ, based on contrib by Houssem Bouchekara, et al)
%         - Move branch 4--9 from row 8 to row 5 to match original order.
%         - Added code for explicit conversion of loads from kW to MW and
%           branch parameters from Ohms to p.u.
%         - Bus 1 Vmin = Vmax = 1.0
%         - Gen Qmin, Qmax, Pmax magnitudes set to 10 (instead of 999)
%         - Branch flow limits disabled, i.e. set to 0 (instead of 999)
%         - Add gen cost.
%         - Change baseMVA to 1 MVA.
%
%   Plain-data copy of benchmark-grids/matpower/case22.m: the file's
%   MATLAB statements (below, as they were) are evaluated by
%   scripts/evaluate_matpower_code.py and the matrices hold the result.
%     Vbase = mpc.bus(1, BASE_KV) * 1e3;
%     Sbase = mpc.baseMVA * 1e6;
%     mpc.branch(:, [BR_R BR_X]) = mpc.branch(:, [BR_R BR_X]) / (Vbase^2 / Sbase);
%     mpc.bus(:, [PD, QD]) = mpc.bus(:, [PD, QD]) / 1e3;

%% MATPOWER Case Format : Version 2
mpc.version = '2';

mpc.baseMVA = 1;

mpc.bus = [
	1	3	0	0	0	0	1	1	0	11	1	1	1;
	2	1	0.01678	0.02091	0	0	1	1	0	11	1	1.1	0.9;
	3	1	0.01678	0.02091	0	0	1	1	0	11	1	1.1	0.9;
	4	1	0.0338	0.03732	0	0	1	1	0	11	1	1.1	0.9;
	5	1	0.01456	0.01252	0	0	1	1	0	11	1	1.1	0.9;
	6	1	0.010490000000000001	0.01421	0	0	1	1	0	11	1	1.1	0.9;
	7	1	0.008821	0.01166	0	0	1	1	0	11	1	1.1	0.9;
	8	1	0.01435	0.01859	0	0	1	1	0	11	1	1.1	0.9;
	9	1	0.01931	0.02587	0	0	1	1	0	11	1	1.1	0.9;
	10	1	0.01435	0.01859	0	0	1	1	0	11	1	1.1	0.9;
	11	1	0.01627	0.01948	0	0	1	1	0	11	1	1.1	0.9;
	12	1	0.01627	0.01948	0	0	1	1	0	11	1	1.1	0.9;
	13	1	0.08213	0.07165	0	0	1	1	0	11	1	1.1	0.9;
	14	1	0.034710000000000005	0.03012	0	0	1	1	0	11	1	1.1	0.9;
	15	1	0.034710000000000005	0.03012	0	0	1	1	0	11	1	1.1	0.9;
	16	1	0.08031	0.07012	0	0	1	1	0	11	1	1.1	0.9;
	17	1	0.04962	0.04782	0	0	1	1	0	11	1	1.1	0.9;
	18	1	0.04962	0.04782	0	0	1	1	0	11	1	1.1	0.9;
	19	1	0.04377	0.03893	0	0	1	1	0	11	1	1.1	0.9;
	20	1	0.03732	0.03596	0	0	1	1	0	11	1	1.1	0.9;
	21	1	0.03732	0.03596	0	0	1	1	0	11	1	1.1	0.9;
	22	1	0.03102	0.02936	0	0	1	1	0	11	1	1.1	0.9;
];

mpc.gen = [
	1	0	0	10	-10	1	100	1	10	0	0	0	0	0	0	0	0	0	0	0	0;
];

mpc.branch = [
	1	2	0.003028099173553719	0.0014933884297520662	0	0	0	0	0	0	1	-360	360;
	2	3	0.0004520661157024793	0.0002330578512396694	0	0	0	0	0	0	1	-360	360;
	2	4	0.004476033057851239	0.0023049586776859505	0	0	0	0	0	0	1	-360	360;
	4	5	0.0015950413223140497	0.0008181818181818183	0	0	0	0	0	0	1	-360	360;
	4	9	0.006141322314049587	0.0031628099173553717	0	0	0	0	0	0	1	-360	360;
	5	6	0.010834710743801653	0.005580165289256199	0	0	0	0	0	0	1	-360	360;
	6	7	0.0004942148760330578	0.00025454545454545456	0	0	0	0	0	0	1	-360	360;
	6	8	0.0024008264462809918	0.0012363636363636366	0	0	0	0	0	0	1	-360	360;
	9	10	0.0004520661157024793	0.0002330578512396694	0	0	0	0	0	0	1	-360	360;
	9	11	0.0055785123966942156	0.0028768595041322315	0	0	0	0	0	0	1	-360	360;
	11	12	0.0004520661157024793	0.0002330578512396694	0	0	0	0	0	0	1	-360	360;
	11	13	0.0032578512396694214	0.0016776859504132233	0	0	0	0	0	0	1	-360	360;
	13	14	0.008644628099173554	0.004452892561983471	0	0	0	0	0	0	1	-360	360;
	14	15	0.0001818181818181818	9.586776859504131e-05	0	0	0	0	0	0	1	-360	360;
	14	16	0.0004520661157024793	0.0002330578512396694	0	0	0	0	0	0	1	-360	360;
	16	17	0.0026545454545454546	0.0013669421487603306	0	0	0	0	0	0	1	-360	360;
	17	18	0.0007842975206611571	0.000403305785123967	0	0	0	0	0	0	1	-360	360;
	17	19	0.004743801652892562	0.0024454545454545454	0	0	0	0	0	0	1	-360	360;
	19	20	0.0010677685950413224	0.0005454545454545455	0	0	0	0	0	0	1	-360	360;
	20	21	0.0007198347107438016	0.00037190082644628097	0	0	0	0	0	0	1	-360	360;
	20	22	0.004404132231404959	0.002267768595041322	0	0	0	0	0	0	1	-360	360;
];

mpc.gencost = [
	2	0	0	3	0	20	0;
];
